     404
 i =    10000, time =     5000.000, E =     -1191.9256214623
 Mo         1.8850731927       -1.1393199445        9.6857942433
 Mo        -0.7818520740        2.6064353968       10.4510608855
 Mo        -1.5534213761        4.9253971648        9.8247562151
 Mo        -3.3540714975        7.8745220766        9.6192842360
 Mo        -4.8883213044       10.5848272109        9.6638511807
 Mo        -6.6556640312       13.4467534367        9.5908090153
 Mo        -8.3432117483       16.3650620931        9.5961931256
 Mo        -9.9250219755       19.0952367815        9.6312461025
 Mo         5.2085225647       -1.0540832277        9.6334141641
 Mo         4.5768031610        0.9636340427       11.2296073120
 Mo         2.4104312202        5.7779333541        9.8932627929
 Mo         0.0994298157        7.8365323132        9.6013670361
 Mo        -1.6317306935       10.7385863958        9.5968327075
 Mo        -3.3519188926       13.5302470158        9.5693298424
 Mo        -5.0247825426       16.3551929809        9.6236182186
 Mo        -6.6751356178       19.1427806003        9.5973766222
 Mo         8.2530394102       -1.0213604647        9.4824507029
 Mo         6.4933718526        1.7058434749        9.8131658619
 Mo         4.3915098163        3.1036062129        9.9128085729
 Mo         3.1375336246        8.1472159758        9.7947448643
 Mo         1.6639122294       10.8240174766        9.7451487273
 Mo         0.0208347999       13.6698334298        9.5789278728
 Mo        -1.8475988249       16.3359408961        9.4838202012
 Mo        -3.2774535718       19.2848951242        9.5669009556
 Mo        11.5656311682       -0.9443456582        9.5886792247
 Mo         9.8700706004        1.8659275034        9.5964892242
 Mo         8.2852049263        4.9555955878        9.6727638197
 Mo         6.7035940920        7.9019211988        9.7916508090
 Mo         5.0224841531       10.7103097892        9.6556911600
 Mo         3.4474896010       13.7530079401        9.5802666180
 Mo         1.4441778140       16.0688205319        9.5621370963
 Mo         0.0097814999       19.4136778186        9.5807480194
 Mo        15.0080842774       -1.0091743833        9.8164806341
 Mo        13.2901358367        1.9897957178        9.6140202848
 Mo        11.6182155869        4.9527426126        9.6368193608
 Mo         9.9127111152        7.8248970318        9.6601559401
 Mo         8.3943871225       10.7393928957        9.5326176807
 Mo         6.7164038780       13.6471116568        9.5981990265
 Mo         5.1080216790       16.1481683820        9.7105046380
 Mo         3.2399702686       19.2004653804        9.7913765993
 Mo        18.2386742139       -1.0243385333        9.7934304095
 Mo        16.6547255369        1.9416472675        9.7939673294
 Mo        14.9290511724        4.8802020891        9.5696587699
 Mo        13.1857602481        7.8659133061        9.6764338214
 Mo        11.5656085002       10.6564036517        9.4908919809
 Mo        10.3142760166       13.3822729366        9.4822133624
 Mo         8.5051204809       16.4841646704        9.5933570506
 Mo         6.6903963870       19.1478093476        9.5478702402
 Mo        21.6781518456       -0.9897962616        9.6704889481
 Mo        19.9836236624        1.8346296424        9.7139448222
 Mo        18.1587274368        4.8342058548        9.6190193416
 Mo        16.5569938320        7.6924178607        9.5729980937
 Mo        14.9417917407       10.5046145270        9.5341474002
 Mo        13.1064341877       13.2739641822        9.4900752875
 Mo        11.6611550748       16.2695672601        9.5685969397
 Mo        10.1002350485       19.2896376578        9.5155549357
 Mo        25.0431076310       -0.8972164100        9.6759561478
 Mo        23.4064739952        1.8989952740        9.7180068725
 Mo        21.6084375896        4.7234109330        9.7192950510
 Mo        19.9861865551        7.6965186113        9.5280944919
 Mo        18.3129621604       10.7209877952        9.5673059860
 Mo        16.4384823428       13.3758979047        9.5808404837
 Mo        15.0604745563       16.1999039345        9.6584122227
 Mo        13.3554305899       19.2052530263        9.6161376407
 Mo        -0.0000020000        1.9208150000        3.8628560000
 Mo        -1.6634770000        4.8020370000        3.8628560000
 Mo        -3.3269520000        7.6832590000        3.8628560000
 Mo        -4.9904270000       10.5644810000        3.8628560000
 Mo        -6.6539030000       13.4457030000        3.8628560000
 Mo        -8.3173780000       16.3269230000        3.8628560000
 Mo        -9.9808530000       19.2081450000        3.8628560000
 Mo       -11.6443280000       22.0893670000        3.8628560000
 Mo         3.3269470000        1.9208150000        3.8628560000
 Mo         1.6634720000        4.8020370000        3.8628560000
 Mo        -0.0000040000        7.6832590000        3.8628560000
 Mo        -1.6634790000       10.5644810000        3.8628560000
 Mo        -3.3269540000       13.4457030000        3.8628560000
 Mo        -4.9904290000       16.3269230000        3.8628560000
 Mo        -6.6539040000       19.2081450000        3.8628560000
 Mo        -8.3173790000       22.0893670000        3.8628560000
 Mo         6.6538960000        1.9208150000        3.8628560000
 Mo         4.9904210000        4.8020370000        3.8628560000
 Mo         3.3269460000        7.6832590000        3.8628560000
 Mo         1.6634700000       10.5644810000        3.8628560000
 Mo        -0.0000050000       13.4457030000        3.8628560000
 Mo        -1.6634800000       16.3269230000        3.8628560000
 Mo        -3.3269550000       19.2081450000        3.8628560000
 Mo        -4.9904300000       22.0893670000        3.8628560000
 Mo         9.9808440000        1.9208150000        3.8628560000
 Mo         8.3173690000        4.8020370000        3.8628560000
 Mo         6.6538940000        7.6832590000        3.8628560000
 Mo         4.9904190000       10.5644810000        3.8628560000
 Mo         3.3269440000       13.4457030000        3.8628560000
 Mo         1.6634690000       16.3269230000        3.8628560000
 Mo        -0.0000060000       19.2081450000        3.8628560000
 Mo        -1.6634820000       22.0893670000        3.8628560000
 Mo        13.3077940000        1.9208150000        3.8628560000
 Mo        11.6443190000        4.8020370000        3.8628560000
 Mo         9.9808440000        7.6832590000        3.8628560000
 Mo         8.3173690000       10.5644810000        3.8628560000
 Mo         6.6538930000       13.4457030000        3.8628560000
 Mo         4.9904180000       16.3269230000        3.8628560000
 Mo         3.3269430000       19.2081450000        3.8628560000
 Mo         1.6634680000       22.0893670000        3.8628560000
 Mo        16.6347430000        1.9208150000        3.8628560000
 Mo        14.9712680000        4.8020370000        3.8628560000
 Mo        13.3077930000        7.6832590000        3.8628560000
 Mo        11.6443180000       10.5644810000        3.8628560000
 Mo         9.9808430000       13.4457030000        3.8628560000
 Mo         8.3173670000       16.3269230000        3.8628560000
 Mo         6.6538920000       19.2081450000        3.8628560000
 Mo         4.9904170000       22.0893670000        3.8628560000
 Mo        19.9616910000        1.9208150000        3.8628560000
 Mo        18.2982160000        4.8020370000        3.8628560000
 Mo        16.6347410000        7.6832590000        3.8628560000
 Mo        14.9712660000       10.5644810000        3.8628560000
 Mo        13.3077910000       13.4457030000        3.8628560000
 Mo        11.6443150000       16.3269230000        3.8628560000
 Mo         9.9808400000       19.2081450000        3.8628560000
 Mo         8.3173650000       22.0893670000        3.8628560000
 Mo        23.2886410000        1.9208150000        3.8628560000
 Mo        21.6251660000        4.8020370000        3.8628560000
 Mo        19.9616910000        7.6832590000        3.8628560000
 Mo        18.2982160000       10.5644810000        3.8628560000
 Mo        16.6347410000       13.4457030000        3.8628560000
 Mo        14.9712650000       16.3269230000        3.8628560000
 Mo        13.3077900000       19.2081450000        3.8628560000
 Mo        11.6443150000       22.0893670000        3.8628560000
 Se         0.1793396467       -0.1880327565       11.4058565633
 Se        -1.0887554376        3.4872837895       14.6652861400
 Se        -3.3066587841        5.9959369320       11.3575417504
 Se        -5.0382162665        8.7507065634       11.3646166499
 Se        -6.5851960325       11.6610925946       11.3502828491
 Se        -8.3801404626       14.3376309195       11.2084898904
 Se        -9.9476074832       17.3218709923       11.4250874065
 Se       -11.4980663278       20.0553584100       11.3489535610
 Se         2.6839182040        3.6478589440       13.6531352661
 Se        -0.5481695309        1.9147419258       12.7389773027
 Se         0.3157523232        5.7841301315       11.3950120341
 Se        -1.7432178110        8.7814944233       11.3216092650
 Se        -3.3809965834       11.7318281314       11.3037739735
 Se        -5.0267712995       14.3158369256       11.3448824135
 Se        -6.6618360505       17.3020873138       11.4461944489
 Se        -8.2765394559       20.2039643424       11.3887745328
 Se         8.4850186607        0.8906208918       14.4801804246
 Se         5.3261583157        1.1661430699       13.6159402956
 Se         4.0307746637        5.0066164519       11.6171327311
 Se         1.5018294976        8.8655971940       11.5484186794
 Se         0.0909343161       11.9338826720       11.3434984896
 Se        -1.7058472004       14.5948637798       11.3630367237
 Se        -3.4028085504       17.2528834056       11.1441330429
 Se        -4.8904482488       20.1514759790       11.1742197754
 Se         9.7780096928       -0.0348620797       11.1653329934
 Se         8.1878328071        2.8479421691       11.2751536200
 Se         6.4500474011        5.8646550465       11.5137611904
 Se         4.9215431892        8.7746749656       11.4180440617
 Se         3.3418397124       11.9331486379       11.3200931854
 Se         0.9574761054       17.2013734352       14.5579452059
 Se        -0.1351749367       17.4246742321       11.0447482833
 Se        -1.6395341032       20.2157048979       11.3574434378
 Se        13.2458933917        0.0124468781       11.2946444997
 Se        11.5579255556        2.9824559892       11.2706468187
 Se         9.9971566962        5.8618501188       11.2771293873
 Se         8.3504993983        8.8496824664       11.4085578156
 Se         6.7613286235       11.6694954739       11.2375243282
 Se         4.5092635083       17.8815369244       14.9802097417
 Se         3.1109986863       17.0891922592       11.4729563905
 Se         1.7246308012       20.1436322470       11.5257602810
 Se        16.6207216275        0.0158896937       11.5175885591
 Se        14.8883672500        3.0634609670       11.3272696284
 Se        13.2609954098        5.9060570810       11.3263410445
 Se        11.5534166267        8.9092847046       11.2979371106
 Se        10.0665587576       11.4791128973       11.2327522402
 Se         8.5278027468       14.5072468224       11.2091408512
 Se         6.6223260613       17.1737482190       11.3647620012
 Se         5.0476044875       19.8802858917       11.2814740903
 Se        20.0261026766       -0.1085191295       11.3496616173
 Se        18.3473820913        2.9330150569       11.3283147192
 Se        16.5654725499        5.7673116588       11.2720538809
 Se        14.9862840148        8.6135308068       11.3653168644
 Se        13.2928771119       11.4058119813       11.1979655693
 Se        11.6989728161       12.9629827105       13.7377480534
 Se        10.1536489176       17.4232823662       11.2359822961
 Se         8.4008947897       20.0764621244       11.2787991570
 Se        23.3063229896       -0.1486627685       11.4279019504
 Se        21.7631663577        2.7382370671       11.4277500331
 Se        19.7360267326        5.8155710407       11.2630014170
 Se        18.2565626117        8.7465516374       11.2284792805
 Se        16.5824391462       11.6066251704       11.3084442380
 Se        14.7092275456       14.2585418946       11.2092626107
 Se        13.4022551257       17.1901741403       11.2947588233
 Se        11.7000364815       20.1314651886       11.2695314080
 Se         1.6634760000        0.9604060000        5.5354720000
 Se         0.0000010000        3.8416280000        5.5354720000
 Se        -1.6634740000        6.7228500000        5.5354720000
 Se        -3.3269500000        9.6040720000        5.5354720000
 Se        -4.9904250000       12.4852930000        5.5354720000
 Se        -6.6539000000       15.3665150000        5.5354720000
 Se        -8.3173750000       18.2477380000        5.5354720000
 Se        -9.9808500000       21.1289600000        5.5354720000
 Se         4.9904250000        0.9604060000        5.5354720000
 Se         3.3269490000        3.8416280000        5.5354720000
 Se         1.6634740000        6.7228500000        5.5354720000
 Se        -0.0000010000        9.6040720000        5.5354720000
 Se        -1.6634760000       12.4852930000        5.5354720000
 Se        -3.3269510000       15.3665150000        5.5354720000
 Se        -4.9904270000       18.2477380000        5.5354720000
 Se        -6.6539020000       21.1289600000        5.5354720000
 Se         8.3173730000        0.9604060000        5.5354720000
 Se         6.6538980000        3.8416280000        5.5354720000
 Se         4.9904230000        6.7228500000        5.5354720000
 Se         3.3269480000        9.6040720000        5.5354720000
 Se         1.6634730000       12.4852930000        5.5354720000
 Se        -0.0000030000       15.3665150000        5.5354720000
 Se        -1.6634780000       18.2477380000        5.5354720000
 Se        -3.3269530000       21.1289600000        5.5354720000
 Se        11.6443220000        0.9604060000        5.5354720000
 Se         9.9808470000        3.8416280000        5.5354720000
 Se         8.3173720000        6.7228500000        5.5354720000
 Se         6.6538970000        9.6040720000        5.5354720000
 Se         4.9904220000       12.4852930000        5.5354720000
 Se         3.3269460000       15.3665150000        5.5354720000
 Se         1.6634710000       18.2477380000        5.5354720000
 Se        -0.0000040000       21.1289600000        5.5354720000
 Se        14.9712720000        0.9604060000        5.5354720000
 Se        13.3077960000        3.8416280000        5.5354720000
 Se        11.6443210000        6.7228500000        5.5354720000
 Se         9.9808450000        9.6040720000        5.5354720000
 Se         8.3173700000       12.4852930000        5.5354720000
 Se         6.6538950000       15.3665150000        5.5354720000
 Se         4.9904200000       18.2477380000        5.5354720000
 Se         3.3269450000       21.1289600000        5.5354720000
 Se        18.2982200000        0.9604060000        5.5354720000
 Se        16.6347450000        3.8416280000        5.5354720000
 Se        14.9712700000        6.7228500000        5.5354720000
 Se        13.3077940000        9.6040720000        5.5354720000
 Se        11.6443190000       12.4852930000        5.5354720000
 Se         9.9808440000       15.3665150000        5.5354720000
 Se         8.3173690000       18.2477380000        5.5354720000
 Se         6.6538930000       21.1289600000        5.5354720000
 Se        21.6251700000        0.9604060000        5.5354720000
 Se        19.9616950000        3.8416280000        5.5354720000
 Se        18.2982200000        6.7228500000        5.5354720000
 Se        16.6347450000        9.6040720000        5.5354720000
 Se        14.9712690000       12.4852930000        5.5354720000
 Se        13.3077940000       15.3665150000        5.5354720000
 Se        11.6443190000       18.2477380000        5.5354720000
 Se         9.9808440000       21.1289600000        5.5354720000
 Se        24.9521180000        0.9604060000        5.5354720000
 Se        23.2886430000        3.8416280000        5.5354720000
 Se        21.6251680000        6.7228500000        5.5354720000
 Se        19.9616930000        9.6040720000        5.5354720000
 Se        18.2982180000       12.4852930000        5.5354720000
 Se        16.6347430000       15.3665150000        5.5354720000
 Se        14.9712670000       18.2477380000        5.5354720000
 Se        13.3077920000       21.1289600000        5.5354720000
 Se         0.2613640739        0.0219628568        7.9791028022
 Se        -1.7303795828        2.9794171426        7.8058178202
 Se        -3.3830880198        5.7783856716        8.1001821152
 Se        -5.0147742523        8.6493354857        7.9614944159
 Se        -6.4409184705       11.5890085415        8.0219218298
 Se        -8.4265581608       14.3718553791        7.9957411806
 Se        -9.9735362328       17.2404262536        7.9317744847
 Se       -11.5524101850       20.0713678252        7.8857584202
 Se         3.4619115108       -0.1358918986        7.8659863807
 Se         0.6756115093        2.3178364774        8.4245480088
 Se         0.3261024716        5.8053422778        8.1996064999
 Se        -1.5676378764        8.6213380743        7.9758679060
 Se        -3.3338463459       11.6545221903        7.9259977379
 Se        -5.0018770835       14.4973274285        7.8314860777
 Se        -6.7092753037       17.2458552258        7.9767659926
 Se        -8.4038898946       20.1310550384        7.8410366872
 Se         6.7409399835        0.0962693094        7.7783269493
 Se         3.1599185143        2.1765601740        7.9477332281
 Se         4.1995462780        5.0097505435        8.1477943846
 Se         1.6734877406        9.0233005618        7.9369560227
 Se         0.0330037532       11.6186362488        7.9143014966
 Se        -1.7455572601       14.5372689987        7.7755354901
 Se        -3.4600819401       17.4977468329        7.9139339323
 Se        -4.9526699080       20.0688895920        7.8346453584
 Se         9.9922132475        0.0275145557        7.8460377457
 Se         8.0014272431        2.9983809231        8.0677403685
 Se         6.4918957147        5.9826902050        8.0991051116
 Se         4.9239761897        8.6439438622        8.0348075481
 Se         3.3565039151       11.5395672645        7.9708250352
 Se         1.8072536828       14.4227889645        7.7265338355
 Se        -0.0732089391       17.4316282236        7.8791880599
 Se        -1.5676153229       20.1818468362        7.8685407750
 Se        13.3240699566        0.0487511096        8.0474629389
 Se        11.5645325396        3.0348475671        7.9498826338
 Se         9.8184420346        5.8412328628        8.0054017425
 Se         8.3047217608        8.5954044370        7.8203917857
 Se         6.7315999698       11.6456360517        7.8510356256
 Se         5.1411081074       14.4910121622        7.8209647012
 Se         3.2690412054       17.2026314322        8.1272631870
 Se         1.7371355820       20.2250895758        7.9829737684
 Se        16.6594591162       -0.0919058562        8.1185415719
 Se        15.0197894748        2.7369627898        8.0271216764
 Se        13.3375574542        5.8620834409        7.9162483594
 Se        11.5654857062        8.6140535961        7.8961015289
 Se         9.9308401874       11.5799499967        7.7053380942
 Se         8.4784321945       14.4945632102        8.0001834546
 Se         6.6320221560       17.2280182458        7.8835686880
 Se         4.9083499726       19.9864154744        8.0253945190
 Se        19.8749514232       -0.0129961119        8.1596679711
 Se        18.3938272821        2.8491209732        8.0912149073
 Se        16.5439152369        5.8625134903        7.8392546552
 Se        14.9457127274        8.6246784681        7.8926925540
 Se        13.3546578253       11.4690437388        7.8417267202
 Se        11.7777844675       14.4808804922        7.7786911874
 Se        10.0628223091       17.3052755272        7.8713216854
 Se         8.3832570469       20.2743791017        7.8617228329
 Se        23.3702492456        0.0364416074        8.0004439624
 Se        21.6660562690        2.8654548859        8.0859171472
 Se        19.8867931477        5.5812027374        8.0090472258
 Se        18.2192920277        8.6411913459        7.9293898161
 Se        16.5338914223       11.4837802027        7.9175738827
 Se        14.8473868652       14.3733591833        7.9224056306
 Se        13.4351837785       17.2317707044        7.9659846045
 Se        11.8108811883       20.1989023814        7.9140685959
 Se         1.6634760000        0.9604060000        2.1902390000
 Se         0.0000010000        3.8416280000        2.1902390000
 Se        -1.6634740000        6.7228500000        2.1902390000
 Se        -3.3269500000        9.6040720000        2.1902390000
 Se        -4.9904250000       12.4852930000        2.1902390000
 Se        -6.6539000000       15.3665150000        2.1902390000
 Se        -8.3173750000       18.2477380000        2.1902390000
 Se        -9.9808500000       21.1289600000        2.1902390000
 Se         4.9904250000        0.9604060000        2.1902390000
 Se         3.3269490000        3.8416280000        2.1902390000
 Se         1.6634740000        6.7228500000        2.1902390000
 Se        -0.0000010000        9.6040720000        2.1902390000
 Se        -1.6634760000       12.4852930000        2.1902390000
 Se        -3.3269510000       15.3665150000        2.1902390000
 Se        -4.9904270000       18.2477380000        2.1902390000
 Se        -6.6539020000       21.1289600000        2.1902390000
 Se         8.3173730000        0.9604060000        2.1902390000
 Se         6.6538980000        3.8416280000        2.1902390000
 Se         4.9904230000        6.7228500000        2.1902390000
 Se         3.3269480000        9.6040720000        2.1902390000
 Se         1.6634730000       12.4852930000        2.1902390000
 Se        -0.0000030000       15.3665150000        2.1902390000
 Se        -1.6634780000       18.2477380000        2.1902390000
 Se        -3.3269530000       21.1289600000        2.1902390000
 Se        11.6443220000        0.9604060000        2.1902390000
 Se         9.9808470000        3.8416280000        2.1902390000
 Se         8.3173720000        6.7228500000        2.1902390000
 Se         6.6538970000        9.6040720000        2.1902390000
 Se         4.9904220000       12.4852930000        2.1902390000
 Se         3.3269460000       15.3665150000        2.1902390000
 Se         1.6634710000       18.2477380000        2.1902390000
 Se        -0.0000040000       21.1289600000        2.1902390000
 Se        14.9712720000        0.9604060000        2.1902390000
 Se        13.3077960000        3.8416280000        2.1902390000
 Se        11.6443210000        6.7228500000        2.1902390000
 Se         9.9808450000        9.6040720000        2.1902390000
 Se         8.3173700000       12.4852930000        2.1902390000
 Se         6.6538950000       15.3665150000        2.1902390000
 Se         4.9904200000       18.2477380000        2.1902390000
 Se         3.3269450000       21.1289600000        2.1902390000
 Se        18.2982200000        0.9604060000        2.1902390000
 Se        16.6347450000        3.8416280000        2.1902390000
 Se        14.9712700000        6.7228500000        2.1902390000
 Se        13.3077940000        9.6040720000        2.1902390000
 Se        11.6443190000       12.4852930000        2.1902390000
 Se         9.9808440000       15.3665150000        2.1902390000
 Se         8.3173690000       18.2477380000        2.1902390000
 Se         6.6538930000       21.1289600000        2.1902390000
 Se        21.6251700000        0.9604060000        2.1902390000
 Se        19.9616950000        3.8416280000        2.1902390000
 Se        18.2982200000        6.7228500000        2.1902390000
 Se        16.6347450000        9.6040720000        2.1902390000
 Se        14.9712690000       12.4852930000        2.1902390000
 Se        13.3077940000       15.3665150000        2.1902390000
 Se        11.6443190000       18.2477380000        2.1902390000
 Se         9.9808440000       21.1289600000        2.1902390000
 Se        24.9521180000        0.9604060000        2.1902390000
 Se        23.2886430000        3.8416280000        2.1902390000
 Se        21.6251680000        6.7228500000        2.1902390000
 Se        19.9616930000        9.6040720000        2.1902390000
 Se        18.2982180000       12.4852930000        2.1902390000
 Se        16.6347430000       15.3665150000        2.1902390000
 Se        14.9712670000       18.2477380000        2.1902390000
 Se        13.3077920000       21.1289600000        2.1902390000
 Se         3.1008428512        1.3531976380       13.4584755302
 In        -1.7549930016       10.8440938559       13.1328558528
 In        13.2059808898       19.0102827072       13.3173503818
 In        26.3453573619        7.6786364474       13.2152168712
 In        14.6036007953       12.4762078227       13.3025338406
 In        11.7918643555       15.0260673991       12.2326646652
 Se        24.3882334062        5.3536126246       13.8510375095
 In        -4.8846541830        4.9708046561       13.1321161580
 In         8.6446996152       16.4595269375       13.2036815339
 In        13.2506735407        2.0257958831       13.1717653523
 In         9.5586212240       -1.6107699158       13.3321064397
 In         8.4025871173        6.6296435127       13.2912992450
 Se        11.7156214311       16.7807868098       14.1262453471
 Se         2.5768327127       18.3241816054       13.6668014786
 Se         1.0552462837        3.8838616383       15.3514671782
 Se        10.9101146880        0.7634608787       14.3301201585
 In         6.6367682038       19.2209518512       13.2614253413
 In         9.4958210758        3.2331797156       13.4605351675
 Se         8.2980921257        7.1640962350       15.6626661176
 In        -1.6497141017       16.7574810589       13.1663933744
